<?xml version="1.0" encoding="UTF-8"?>

<!-- generated on 12/03/19 17:37:40 by Eclipse SUMO netedit Version 1.3.1
<configuration xmlns:xsi="http://www.w3.org/2001/XMLSchema-instance" xsi:noNamespaceSchemaLocation="http://sumo.dlr.de/xsd/netconvertConfiguration.xsd">

    <input>
        <sumo-net-file value="D:\Project\hefei\cfg8_S12W22N12E13\intersection.net.xml"/>
    </input>

    <output>
        <output-file value="D:\Project\hefei\cfg8_S12W22N12E13\intersection.net.xml"/>
    </output>

    <processing>
        <geometry.max-grade.fix value="false"/>
        <offset.disable-normalization value="true"/>
        <opposites.guess.fix-lengths value="true"/>
        <lefthand value="false"/>
    </processing>

    <junctions>
        <no-internal-links value="false"/>
        <no-turnarounds value="true"/>
        <junctions.corner-detail value="5"/>
        <junctions.limit-turn-speed value="5.5"/>
        <rectangular-lane-cut value="false"/>
    </junctions>

    <pedestrian>
        <walkingareas value="false"/>
    </pedestrian>

    <visualisation>
        <registry-viewport value="true"/>
    </visualisation>

</configuration>
-->

<net version="1.3" junctionCornerDetail="5" limitTurnSpeed="5.50" xmlns:xsi="http://www.w3.org/2001/XMLSchema-instance" xsi:noNamespaceSchemaLocation="http://sumo.dlr.de/xsd/net_file.xsd">

    <location netOffset="200.00,194.10" convBoundary="0.00,0.00,400.00,394.10" origBoundary="-200.00,-194.10,200.00,200.00" projParameter="!"/>

    <edge id=":a_0" function="internal">
        <lane id=":a_0_0" index="0" speed="8.53" length="12.15" width="3.75" shape="187.75,215.60 187.03,211.94 184.86,209.32 181.24,207.75 180.18,207.64"/>
    </edge>
    <edge id=":a_1" function="internal">
        <lane id=":a_1_0" index="0" speed="17.00" length="45.34" width="3.75" shape="191.25,215.60 190.90,202.98 189.77,193.26 187.74,183.65 184.67,171.36"/>
        <lane id=":a_1_1" index="1" speed="17.00" length="45.34" width="3.75" shape="194.75,215.60 194.42,202.84 193.34,192.80 191.35,182.88 188.31,170.45"/>
    </edge>
    <edge id=":a_3" function="internal">
        <lane id=":a_3_0" index="0" speed="12.95" length="19.60" width="3.75" shape="198.25,215.60 199.55,203.73 202.75,196.76"/>
    </edge>
    <edge id=":a_18" function="internal">
        <lane id=":a_18_0" index="0" speed="8.53" length="4.02" width="3.75" shape="180.18,207.64 176.18,207.22"/>
    </edge>
    <edge id=":a_19" function="internal">
        <lane id=":a_19_0" index="0" speed="12.95" length="19.14" width="3.75" shape="202.75,196.76 203.44,195.26 209.92,190.17 219.00,188.47"/>
    </edge>
    <edge id=":a_4" function="internal">
        <lane id=":a_4_0" index="0" speed="6.65" length="5.09" width="3.75" shape="219.00,209.85 216.43,210.21 214.59,211.29 214.40,211.60"/>
    </edge>
    <edge id=":a_5" function="internal">
        <lane id=":a_5_0" index="0" speed="17.00" length="42.94" width="3.75" shape="219.00,206.35 176.18,203.47"/>
        <lane id=":a_5_1" index="1" speed="17.00" length="42.94" width="3.75" shape="219.00,202.85 176.18,199.72"/>
        <lane id=":a_5_2" index="2" speed="17.00" length="42.94" width="3.75" shape="219.00,199.35 176.18,195.97"/>
    </edge>
    <edge id=":a_8" function="internal">
        <lane id=":a_8_0" index="0" speed="15.13" length="21.99" width="3.75" shape="219.00,195.85 207.95,194.26 199.15,189.50 198.62,188.87"/>
    </edge>
    <edge id=":a_20" function="internal">
        <lane id=":a_20_0" index="0" speed="6.65" length="4.28" width="3.75" shape="214.40,211.60 213.49,213.08 213.13,215.60"/>
    </edge>
    <edge id=":a_21" function="internal">
        <lane id=":a_21_0" index="0" speed="15.13" length="21.38" width="3.75" shape="198.62,188.87 192.60,181.56 188.31,170.45"/>
    </edge>
    <edge id=":a_9" function="internal">
        <lane id=":a_9_0" index="0" speed="10.78" length="17.47" width="3.75" shape="205.65,166.13 207.87,172.62 210.84,177.26 214.55,180.05 215.00,180.14"/>
    </edge>
    <edge id=":a_10" function="internal">
        <lane id=":a_10_0" index="0" speed="17.00" length="48.86" width="3.75" shape="202.25,166.97 205.41,179.94 207.63,191.06 208.94,202.29 209.38,215.60"/>
        <lane id=":a_10_1" index="1" speed="17.00" length="48.86" width="3.75" shape="198.86,167.82 201.96,180.66 204.06,191.49 205.25,202.43 205.63,215.60"/>
    </edge>
    <edge id=":a_12" function="internal">
        <lane id=":a_12_0" index="0" speed="12.25" length="20.86" width="3.75" shape="195.46,168.67 196.96,180.54 194.47,189.08"/>
    </edge>
    <edge id=":a_22" function="internal">
        <lane id=":a_22_0" index="0" speed="10.78" length="4.09" width="3.75" shape="215.00,180.14 219.00,180.97"/>
    </edge>
    <edge id=":a_23" function="internal">
        <lane id=":a_23_0" index="0" speed="12.25" length="20.16" width="3.75" shape="194.47,189.08 187.66,194.24 176.18,195.97"/>
    </edge>
    <edge id=":a_13" function="internal">
        <lane id=":a_13_0" index="0" speed="6.19" length="5.16" width="3.75" shape="176.18,178.35 178.87,177.97 180.57,176.83 180.71,176.47"/>
    </edge>
    <edge id=":a_14" function="internal">
        <lane id=":a_14_0" index="0" speed="17.00" length="42.93" width="3.75" shape="176.18,181.85 219.00,184.72"/>
        <lane id=":a_14_1" index="1" speed="17.00" length="42.93" width="3.75" shape="176.18,185.35 219.00,188.47"/>
    </edge>
    <edge id=":a_16" function="internal">
        <lane id=":a_16_0" index="0" speed="13.98" length="23.85" width="3.75" shape="176.18,188.85 189.06,190.52 198.26,195.54 198.47,195.85"/>
    </edge>
    <edge id=":a_17" function="internal">
        <lane id=":a_17_0" index="0" speed="13.07" length="14.22" width="3.75" shape="176.18,192.35 187.42,193.80 189.96,195.18"/>
    </edge>
    <edge id=":a_24" function="internal">
        <lane id=":a_24_0" index="0" speed="6.19" length="4.32" width="3.75" shape="180.71,176.47 181.29,174.93 181.03,172.27"/>
    </edge>
    <edge id=":a_25" function="internal">
        <lane id=":a_25_0" index="0" speed="13.98" length="21.49" width="3.75" shape="198.47,195.85 203.78,203.90 205.63,215.60"/>
    </edge>
    <edge id=":a_26" function="internal">
        <lane id=":a_26_0" index="0" speed="13.07" length="25.27" width="3.75" shape="189.96,195.18 195.45,198.16 200.27,205.43 201.88,215.60"/>
    </edge>
    <edge id=":a_c0" function="crossing" crossingEdges="a3o a3i">
        <lane id=":a_c0_0" index="0" allow="pedestrian" speed="1.00" length="29.00" width="4.00" shape="215.00,213.60 186.00,213.60"/>
    </edge>
    <edge id=":a_c1" function="crossing" crossingEdges="a2o a2i">
        <lane id=":a_c1_0" index="0" allow="pedestrian" speed="1.00" length="32.50" width="4.00" shape="217.00,179.10 217.00,211.60"/>
    </edge>
    <edge id=":a_c2" function="crossing" crossingEdges="a1o a1i">
        <lane id=":a_c2_0" index="0" allow="pedestrian" speed="1.00" length="29.00" width="4.00" shape="179.69,174.66 207.83,167.64"/>
    </edge>
    <edge id=":a_c3" function="crossing" crossingEdges="a4o a4i">
        <lane id=":a_c3_0" index="0" allow="pedestrian" speed="1.00" length="32.50" width="4.00" shape="178.18,209.10 178.18,176.60"/>
    </edge>
    <edge id=":a_w0" function="walkingarea">
        <lane id=":a_w0_0" index="0" allow="pedestrian" speed="1.00" length="37.40" width="3.75" shape="186.00,215.60 189.50,215.60 189.50,215.60 193.00,215.60 193.00,215.60 196.50,215.60 196.50,215.60 200.00,215.60 200.00,215.60 203.75,215.60 203.75,215.60 207.50,215.60 207.50,215.60 211.25,215.60 211.25,215.60 215.00,215.60 219.00,211.60 219.00,208.10 219.00,208.10 219.00,204.60 219.00,204.60 219.00,201.10 219.00,201.10 219.00,197.60 219.00,197.60 219.00,194.10 219.00,194.10 219.00,190.35 219.00,190.35 219.00,186.60 219.00,186.60 219.00,182.85 219.00,182.85 219.00,179.10 207.35,165.70 203.95,166.55 203.95,166.55 200.56,167.40 200.56,167.40 197.16,168.24 197.16,168.24 193.76,169.09 193.76,169.09 190.12,170.00 190.12,170.00 186.49,170.90 186.49,170.90 182.85,171.81 182.85,171.81 179.21,172.72 176.18,176.60 176.18,180.10 176.18,180.10 176.18,183.60 176.18,183.60 176.18,187.10 176.18,187.10 176.18,190.60 176.18,190.60 176.18,194.10 176.18,194.10 176.18,197.85 176.18,197.85 176.18,201.60 176.18,201.60 176.18,205.35 176.18,205.35 176.18,209.10 185.73,213.61 184.91,211.99 183.54,210.73 181.63,209.82 179.18,209.28"/>
    </edge>
    <edge id=":a_w1" function="walkingarea">
        <lane id=":a_w1_0" index="0" allow="pedestrian" speed="1.00" length="9.02" width="4.00" shape="186.00,211.60 186.00,215.60 176.18,209.10 180.18,209.10"/>
    </edge>
    <edge id=":a_w2" function="walkingarea">
        <lane id=":a_w2_0" index="0" allow="pedestrian" speed="1.00" length="2.83" width="4.00" shape="215.00,211.60 219.00,211.60 215.00,215.60 215.00,211.60"/>
    </edge>
    <edge id=":a_w3" function="walkingarea">
        <lane id=":a_w3_0" index="0" allow="pedestrian" speed="1.00" length="14.67" width="4.00" shape="208.32,169.58 207.35,165.70 219.00,179.10 215.00,179.10"/>
    </edge>
    <edge id=":a_w4" function="walkingarea">
        <lane id=":a_w4_0" index="0" allow="pedestrian" speed="1.00" length="2.46" width="4.00" shape="180.18,176.60 176.18,176.60 179.21,172.72 180.18,176.60"/>
    </edge>
    <edge id=":a1_w0" function="walkingarea">
        <lane id=":a1_w0_0" index="0" allow="pedestrian" speed="1.00" length="25.37" width="3.75" shape="151.60,0.00 155.00,-0.85 155.00,-0.85 158.39,-1.69 158.39,-1.69 161.79,-2.54 161.79,-2.54 165.18,-3.39 137.05,3.63 140.68,2.72 140.68,2.72 144.32,1.81 144.32,1.81 147.96,0.91 147.96,0.91 151.60,-0.00"/>
    </edge>
    <edge id=":a2_w0" function="walkingarea">
        <lane id=":a2_w0_0" index="0" allow="pedestrian" speed="1.00" length="28.88" width="3.75" shape="400.00,194.10 400.00,197.60 400.00,197.60 400.00,201.10 400.00,201.10 400.00,204.60 400.00,204.60 400.00,208.10 400.00,208.10 400.00,211.60 400.00,179.10 400.00,182.85 400.00,182.85 400.00,186.60 400.00,186.60 400.00,190.35 400.00,190.35 400.00,194.10"/>
    </edge>
    <edge id=":a3_w0" function="walkingarea">
        <lane id=":a3_w0_0" index="0" allow="pedestrian" speed="1.00" length="25.38" width="3.75" shape="200.00,394.10 196.50,394.10 196.50,394.10 193.00,394.10 193.00,394.10 189.50,394.10 189.50,394.10 186.00,394.10 215.00,394.10 211.25,394.10 211.25,394.10 207.50,394.10 207.50,394.10 203.75,394.10 203.75,394.10 200.00,394.10"/>
    </edge>
    <edge id=":a4_w0" function="walkingarea">
        <lane id=":a4_w0_0" index="0" allow="pedestrian" speed="1.00" length="28.88" width="3.75" shape="0.00,194.10 0.00,190.60 0.00,190.60 0.00,187.10 0.00,187.10 0.00,183.60 0.00,183.60 0.00,180.10 0.00,180.10 0.00,176.60 0.00,209.10 0.00,205.35 0.00,205.35 0.00,201.60 0.00,201.60 0.00,197.85 0.00,197.85 0.00,194.10"/>
    </edge>

    <edge id="a1i" from="a1" to="a" priority="78">
        <lane id="a1i_0" index="0" speed="15.00" length="174.27" width="3.50" shape="163.49,-2.96 205.65,166.13"/>
        <lane id="a1i_1" index="1" speed="15.00" length="174.27" width="3.50" shape="160.09,-2.12 202.25,166.97"/>
        <lane id="a1i_2" index="2" speed="15.00" length="174.27" width="3.50" shape="156.69,-1.27 198.86,167.82"/>
        <lane id="a1i_3" index="3" speed="15.00" length="174.27" width="3.50" shape="153.30,-0.42 195.46,168.67"/>
    </edge>
    <edge id="a1o" from="a" to="a1" priority="46">
        <lane id="a1o_0" index="0" speed="19.00" length="174.27" width="3.75" shape="181.03,172.27 138.86,3.18"/>
        <lane id="a1o_1" index="1" speed="19.00" length="174.27" width="3.75" shape="184.67,171.36 142.50,2.27"/>
        <lane id="a1o_2" index="2" speed="19.00" length="174.27" width="3.75" shape="188.31,170.45 146.14,1.36"/>
        <lane id="a1o_3" index="3" speed="19.00" length="174.27" width="3.75" shape="191.94,169.54 149.78,0.45"/>
    </edge>
    <edge id="a2i" from="a2" to="a" priority="78">
        <lane id="a2i_0" index="0" speed="15.00" length="181.00" width="3.50" shape="400.00,209.85 219.00,209.85"/>
        <lane id="a2i_1" index="1" speed="15.00" length="181.00" width="3.50" shape="400.00,206.35 219.00,206.35"/>
        <lane id="a2i_2" index="2" speed="15.00" length="181.00" width="3.50" shape="400.00,202.85 219.00,202.85"/>
        <lane id="a2i_3" index="3" speed="15.00" length="181.00" width="3.50" shape="400.00,199.35 219.00,199.35"/>
        <lane id="a2i_4" index="4" speed="15.00" length="181.00" width="3.50" shape="400.00,195.85 219.00,195.85"/>
    </edge>
    <edge id="a2o" from="a" to="a2" priority="46">
        <lane id="a2o_0" index="0" speed="19.00" length="181.00" width="3.75" shape="219.00,180.97 400.00,180.97"/>
        <lane id="a2o_1" index="1" speed="19.00" length="181.00" width="3.75" shape="219.00,184.72 400.00,184.72"/>
        <lane id="a2o_2" index="2" speed="19.00" length="181.00" width="3.75" shape="219.00,188.47 400.00,188.47"/>
        <lane id="a2o_3" index="3" speed="19.00" length="181.00" width="3.75" shape="219.00,192.22 400.00,192.22"/>
    </edge>
    <edge id="a3i" from="a3" to="a" priority="78">
        <lane id="a3i_0" index="0" speed="15.00" length="178.50" width="3.50" shape="187.75,394.10 187.75,215.60"/>
        <lane id="a3i_1" index="1" speed="15.00" length="178.50" width="3.50" shape="191.25,394.10 191.25,215.60"/>
        <lane id="a3i_2" index="2" speed="15.00" length="178.50" width="3.50" shape="194.75,394.10 194.75,215.60"/>
        <lane id="a3i_3" index="3" speed="15.00" length="178.50" width="3.50" shape="198.25,394.10 198.25,215.60"/>
    </edge>
    <edge id="a3o" from="a" to="a3" priority="46">
        <lane id="a3o_0" index="0" speed="19.00" length="178.50" width="3.75" shape="213.13,215.60 213.13,394.10"/>
        <lane id="a3o_1" index="1" speed="19.00" length="178.50" width="3.75" shape="209.38,215.60 209.38,394.10"/>
        <lane id="a3o_2" index="2" speed="19.00" length="178.50" width="3.75" shape="205.63,215.60 205.63,394.10"/>
        <lane id="a3o_3" index="3" speed="19.00" length="178.50" width="3.75" shape="201.88,215.60 201.88,394.10"/>
    </edge>
    <edge id="a4i" from="a4" to="a" priority="78">
        <lane id="a4i_0" index="0" speed="15.00" length="176.18" width="3.50" shape="0.00,178.35 176.18,178.35"/>
        <lane id="a4i_1" index="1" speed="15.00" length="176.18" width="3.50" shape="0.00,181.85 176.18,181.85"/>
        <lane id="a4i_2" index="2" speed="15.00" length="176.18" width="3.50" shape="0.00,185.35 176.18,185.35"/>
        <lane id="a4i_3" index="3" speed="15.00" length="176.18" width="3.50" shape="0.00,188.85 176.18,188.85"/>
        <lane id="a4i_4" index="4" speed="15.00" length="176.18" width="3.50" shape="0.00,192.35 176.18,192.35"/>
    </edge>
    <edge id="a4o" from="a" to="a4" priority="46">
        <lane id="a4o_0" index="0" speed="19.00" length="176.18" width="3.75" shape="176.18,207.22 0.00,207.22"/>
        <lane id="a4o_1" index="1" speed="19.00" length="176.18" width="3.75" shape="176.18,203.47 0.00,203.47"/>
        <lane id="a4o_2" index="2" speed="19.00" length="176.18" width="3.75" shape="176.18,199.72 0.00,199.72"/>
        <lane id="a4o_3" index="3" speed="19.00" length="176.18" width="3.75" shape="176.18,195.97 0.00,195.97"/>
    </edge>

    <tlLogic id="a" type="static" programID="0" offset="0">
        <phase duration="5" state="OrrrOrrrrOrrrOrrrrOOOO"/>
        <phase duration="5" state="OrrrOrrrrOrrrOrrGGOOOO"/>
        <phase duration="5" state="OrrrOrrrrOrrrOGGrrOOOO"/>
        <phase duration="5" state="OrrrOrrrrOrrrOGGGGOOOO"/>
        <phase duration="5" state="OrrrOrrrrOrrGOrrrrOOOO"/>
        <phase duration="5" state="OrrrOrrrrOrrGOrrGGOOOO"/>
        <phase duration="5" state="OrrrOrrrrOrrGOGGrrOOOO"/>
        <phase duration="5" state="OrrrOrrrrOrrGOGGGGOOOO"/>
        <phase duration="5" state="OrrrOrrrrOGGrOrrrrOOOO"/>
        <phase duration="5" state="OrrrOrrrrOGGrOrrGGOOOO"/>
        <phase duration="5" state="OrrrOrrrrOGGrOGGrrOOOO"/>
        <phase duration="5" state="OrrrOrrrrOGGrOGGGGOOOO"/>
        <phase duration="5" state="OrrrOrrrrOGGGOrrrrOOOO"/>
        <phase duration="5" state="OrrrOrrrrOGGGOrrGGOOOO"/>
        <phase duration="5" state="OrrrOrrrrOGGGOGGrrOOOO"/>
        <phase duration="5" state="OrrrOrrrrOGGGOGGGGOOOO"/>
        <phase duration="5" state="OrrrOrrrGOrrrOrrrrOOOO"/>
        <phase duration="5" state="OrrrOrrrGOrrrOrrGGOOOO"/>
        <phase duration="5" state="OrrrOrrrGOrrrOGGrrOOOO"/>
        <phase duration="5" state="OrrrOrrrGOrrrOGGGGOOOO"/>
        <phase duration="5" state="OrrrOrrrGOrrGOrrrrOOOO"/>
        <phase duration="5" state="OrrrOrrrGOrrGOrrGGOOOO"/>
        <phase duration="5" state="OrrrOrrrGOrrGOGGrrOOOO"/>
        <phase duration="5" state="OrrrOrrrGOrrGOGGGGOOOO"/>
        <phase duration="5" state="OrrrOrrrGOGGrOrrrrOOOO"/>
        <phase duration="5" state="OrrrOrrrGOGGrOrrGGOOOO"/>
        <phase duration="5" state="OrrrOrrrGOGGrOGGrrOOOO"/>
        <phase duration="5" state="OrrrOrrrGOGGrOGGGGOOOO"/>
        <phase duration="5" state="OrrrOrrrGOGGGOrrrrOOOO"/>
        <phase duration="5" state="OrrrOrrrGOGGGOrrGGOOOO"/>
        <phase duration="5" state="OrrrOrrrGOGGGOGGrrOOOO"/>
        <phase duration="5" state="OrrrOrrrGOGGGOGGGGOOOO"/>
        <phase duration="5" state="OrrrOGGGrOrrrOrrrrOOOO"/>
        <phase duration="5" state="OrrrOGGGrOrrrOrrGGOOOO"/>
        <phase duration="5" state="OrrrOGGGrOrrrOGGrrOOOO"/>
        <phase duration="5" state="OrrrOGGGrOrrrOGGGGOOOO"/>
        <phase duration="5" state="OrrrOGGGrOrrGOrrrrOOOO"/>
        <phase duration="5" state="OrrrOGGGrOrrGOrrGGOOOO"/>
        <phase duration="5" state="OrrrOGGGrOrrGOGGrrOOOO"/>
        <phase duration="5" state="OrrrOGGGrOrrGOGGGGOOOO"/>
        <phase duration="5" state="OrrrOGGGrOGGrOrrrrOOOO"/>
        <phase duration="5" state="OrrrOGGGrOGGrOrrGGOOOO"/>
        <phase duration="5" state="OrrrOGGGrOGGrOGGrrOOOO"/>
        <phase duration="5" state="OrrrOGGGrOGGrOGGGGOOOO"/>
        <phase duration="5" state="OrrrOGGGrOGGGOrrrrOOOO"/>
        <phase duration="5" state="OrrrOGGGrOGGGOrrGGOOOO"/>
        <phase duration="5" state="OrrrOGGGrOGGGOGGrrOOOO"/>
        <phase duration="5" state="OrrrOGGGrOGGGOGGGGOOOO"/>
        <phase duration="5" state="OrrrOGGGGOrrrOrrrrOOOO"/>
        <phase duration="5" state="OrrrOGGGGOrrrOrrGGOOOO"/>
        <phase duration="5" state="OrrrOGGGGOrrrOGGrrOOOO"/>
        <phase duration="5" state="OrrrOGGGGOrrrOGGGGOOOO"/>
        <phase duration="5" state="OrrrOGGGGOrrGOrrrrOOOO"/>
        <phase duration="5" state="OrrrOGGGGOrrGOrrGGOOOO"/>
        <phase duration="5" state="OrrrOGGGGOrrGOGGrrOOOO"/>
        <phase duration="5" state="OrrrOGGGGOrrGOGGGGOOOO"/>
        <phase duration="5" state="OrrrOGGGGOGGrOrrrrOOOO"/>
        <phase duration="5" state="OrrrOGGGGOGGrOrrGGOOOO"/>
        <phase duration="5" state="OrrrOGGGGOGGrOGGrrOOOO"/>
        <phase duration="5" state="OrrrOGGGGOGGrOGGGGOOOO"/>
        <phase duration="5" state="OrrrOGGGGOGGGOrrrrOOOO"/>
        <phase duration="5" state="OrrrOGGGGOGGGOrrGGOOOO"/>
        <phase duration="5" state="OrrrOGGGGOGGGOGGrrOOOO"/>
        <phase duration="5" state="OrrrOGGGGOGGGOGGGGOOOO"/>
        <phase duration="5" state="OrrGOrrrrOrrrOrrrrOOOO"/>
        <phase duration="5" state="OrrGOrrrrOrrrOrrGGOOOO"/>
        <phase duration="5" state="OrrGOrrrrOrrrOGGrrOOOO"/>
        <phase duration="5" state="OrrGOrrrrOrrrOGGGGOOOO"/>
        <phase duration="5" state="OrrGOrrrrOrrGOrrrrOOOO"/>
        <phase duration="5" state="OrrGOrrrrOrrGOrrGGOOOO"/>
        <phase duration="5" state="OrrGOrrrrOrrGOGGrrOOOO"/>
        <phase duration="5" state="OrrGOrrrrOrrGOGGGGOOOO"/>
        <phase duration="5" state="OrrGOrrrrOGGrOrrrrOOOO"/>
        <phase duration="5" state="OrrGOrrrrOGGrOrrGGOOOO"/>
        <phase duration="5" state="OrrGOrrrrOGGrOGGrrOOOO"/>
        <phase duration="5" state="OrrGOrrrrOGGrOGGGGOOOO"/>
        <phase duration="5" state="OrrGOrrrrOGGGOrrrrOOOO"/>
        <phase duration="5" state="OrrGOrrrrOGGGOrrGGOOOO"/>
        <phase duration="5" state="OrrGOrrrrOGGGOGGrrOOOO"/>
        <phase duration="5" state="OrrGOrrrrOGGGOGGGGOOOO"/>
        <phase duration="5" state="OrrGOrrrGOrrrOrrrrOOOO"/>
        <phase duration="5" state="OrrGOrrrGOrrrOrrGGOOOO"/>
        <phase duration="5" state="OrrGOrrrGOrrrOGGrrOOOO"/>
        <phase duration="5" state="OrrGOrrrGOrrrOGGGGOOOO"/>
        <phase duration="5" state="OrrGOrrrGOrrGOrrrrOOOO"/>
        <phase duration="5" state="OrrGOrrrGOrrGOrrGGOOOO"/>
        <phase duration="5" state="OrrGOrrrGOrrGOGGrrOOOO"/>
        <phase duration="5" state="OrrGOrrrGOrrGOGGGGOOOO"/>
        <phase duration="5" state="OrrGOrrrGOGGrOrrrrOOOO"/>
        <phase duration="5" state="OrrGOrrrGOGGrOrrGGOOOO"/>
        <phase duration="5" state="OrrGOrrrGOGGrOGGrrOOOO"/>
        <phase duration="5" state="OrrGOrrrGOGGrOGGGGOOOO"/>
        <phase duration="5" state="OrrGOrrrGOGGGOrrrrOOOO"/>
        <phase duration="5" state="OrrGOrrrGOGGGOrrGGOOOO"/>
        <phase duration="5" state="OrrGOrrrGOGGGOGGrrOOOO"/>
        <phase duration="5" state="OrrGOrrrGOGGGOGGGGOOOO"/>
        <phase duration="5" state="OrrGOGGGrOrrrOrrrrOOOO"/>
        <phase duration="5" state="OrrGOGGGrOrrrOrrGGOOOO"/>
        <phase duration="5" state="OrrGOGGGrOrrrOGGrrOOOO"/>
        <phase duration="5" state="OrrGOGGGrOrrrOGGGGOOOO"/>
        <phase duration="5" state="OrrGOGGGrOrrGOrrrrOOOO"/>
        <phase duration="5" state="OrrGOGGGrOrrGOrrGGOOOO"/>
        <phase duration="5" state="OrrGOGGGrOrrGOGGrrOOOO"/>
        <phase duration="5" state="OrrGOGGGrOrrGOGGGGOOOO"/>
        <phase duration="5" state="OrrGOGGGrOGGrOrrrrOOOO"/>
        <phase duration="5" state="OrrGOGGGrOGGrOrrGGOOOO"/>
        <phase duration="5" state="OrrGOGGGrOGGrOGGrrOOOO"/>
        <phase duration="5" state="OrrGOGGGrOGGrOGGGGOOOO"/>
        <phase duration="5" state="OrrGOGGGrOGGGOrrrrOOOO"/>
        <phase duration="5" state="OrrGOGGGrOGGGOrrGGOOOO"/>
        <phase duration="5" state="OrrGOGGGrOGGGOGGrrOOOO"/>
        <phase duration="5" state="OrrGOGGGrOGGGOGGGGOOOO"/>
        <phase duration="5" state="OrrGOGGGGOrrrOrrrrOOOO"/>
        <phase duration="5" state="OrrGOGGGGOrrrOrrGGOOOO"/>
        <phase duration="5" state="OrrGOGGGGOrrrOGGrrOOOO"/>
        <phase duration="5" state="OrrGOGGGGOrrrOGGGGOOOO"/>
        <phase duration="5" state="OrrGOGGGGOrrGOrrrrOOOO"/>
        <phase duration="5" state="OrrGOGGGGOrrGOrrGGOOOO"/>
        <phase duration="5" state="OrrGOGGGGOrrGOGGrrOOOO"/>
        <phase duration="5" state="OrrGOGGGGOrrGOGGGGOOOO"/>
        <phase duration="5" state="OrrGOGGGGOGGrOrrrrOOOO"/>
        <phase duration="5" state="OrrGOGGGGOGGrOrrGGOOOO"/>
        <phase duration="5" state="OrrGOGGGGOGGrOGGrrOOOO"/>
        <phase duration="5" state="OrrGOGGGGOGGrOGGGGOOOO"/>
        <phase duration="5" state="OrrGOGGGGOGGGOrrrrOOOO"/>
        <phase duration="5" state="OrrGOGGGGOGGGOrrGGOOOO"/>
        <phase duration="5" state="OrrGOGGGGOGGGOGGrrOOOO"/>
        <phase duration="5" state="OrrGOGGGGOGGGOGGGGOOOO"/>
        <phase duration="5" state="OGGrOrrrrOrrrOrrrrOOOO"/>
        <phase duration="5" state="OGGrOrrrrOrrrOrrGGOOOO"/>
        <phase duration="5" state="OGGrOrrrrOrrrOGGrrOOOO"/>
        <phase duration="5" state="OGGrOrrrrOrrrOGGGGOOOO"/>
        <phase duration="5" state="OGGrOrrrrOrrGOrrrrOOOO"/>
        <phase duration="5" state="OGGrOrrrrOrrGOrrGGOOOO"/>
        <phase duration="5" state="OGGrOrrrrOrrGOGGrrOOOO"/>
        <phase duration="5" state="OGGrOrrrrOrrGOGGGGOOOO"/>
        <phase duration="5" state="OGGrOrrrrOGGrOrrrrOOOO"/>
        <phase duration="5" state="OGGrOrrrrOGGrOrrGGOOOO"/>
        <phase duration="5" state="OGGrOrrrrOGGrOGGrrOOOO"/>
        <phase duration="5" state="OGGrOrrrrOGGrOGGGGOOOO"/>
        <phase duration="5" state="OGGrOrrrrOGGGOrrrrOOOO"/>
        <phase duration="5" state="OGGrOrrrrOGGGOrrGGOOOO"/>
        <phase duration="5" state="OGGrOrrrrOGGGOGGrrOOOO"/>
        <phase duration="5" state="OGGrOrrrrOGGGOGGGGOOOO"/>
        <phase duration="5" state="OGGrOrrrGOrrrOrrrrOOOO"/>
        <phase duration="5" state="OGGrOrrrGOrrrOrrGGOOOO"/>
        <phase duration="5" state="OGGrOrrrGOrrrOGGrrOOOO"/>
        <phase duration="5" state="OGGrOrrrGOrrrOGGGGOOOO"/>
        <phase duration="5" state="OGGrOrrrGOrrGOrrrrOOOO"/>
        <phase duration="5" state="OGGrOrrrGOrrGOrrGGOOOO"/>
        <phase duration="5" state="OGGrOrrrGOrrGOGGrrOOOO"/>
        <phase duration="5" state="OGGrOrrrGOrrGOGGGGOOOO"/>
        <phase duration="5" state="OGGrOrrrGOGGrOrrrrOOOO"/>
        <phase duration="5" state="OGGrOrrrGOGGrOrrGGOOOO"/>
        <phase duration="5" state="OGGrOrrrGOGGrOGGrrOOOO"/>
        <phase duration="5" state="OGGrOrrrGOGGrOGGGGOOOO"/>
        <phase duration="5" state="OGGrOrrrGOGGGOrrrrOOOO"/>
        <phase duration="5" state="OGGrOrrrGOGGGOrrGGOOOO"/>
        <phase duration="5" state="OGGrOrrrGOGGGOGGrrOOOO"/>
        <phase duration="5" state="OGGrOrrrGOGGGOGGGGOOOO"/>
        <phase duration="5" state="OGGrOGGGrOrrrOrrrrOOOO"/>
        <phase duration="5" state="OGGrOGGGrOrrrOrrGGOOOO"/>
        <phase duration="5" state="OGGrOGGGrOrrrOGGrrOOOO"/>
        <phase duration="5" state="OGGrOGGGrOrrrOGGGGOOOO"/>
        <phase duration="5" state="OGGrOGGGrOrrGOrrrrOOOO"/>
        <phase duration="5" state="OGGrOGGGrOrrGOrrGGOOOO"/>
        <phase duration="5" state="OGGrOGGGrOrrGOGGrrOOOO"/>
        <phase duration="5" state="OGGrOGGGrOrrGOGGGGOOOO"/>
        <phase duration="5" state="OGGrOGGGrOGGrOrrrrOOOO"/>
        <phase duration="5" state="OGGrOGGGrOGGrOrrGGOOOO"/>
        <phase duration="5" state="OGGrOGGGrOGGrOGGrrOOOO"/>
        <phase duration="5" state="OGGrOGGGrOGGrOGGGGOOOO"/>
        <phase duration="5" state="OGGrOGGGrOGGGOrrrrOOOO"/>
        <phase duration="5" state="OGGrOGGGrOGGGOrrGGOOOO"/>
        <phase duration="5" state="OGGrOGGGrOGGGOGGrrOOOO"/>
        <phase duration="5" state="OGGrOGGGrOGGGOGGGGOOOO"/>
        <phase duration="5" state="OGGrOGGGGOrrrOrrrrOOOO"/>
        <phase duration="5" state="OGGrOGGGGOrrrOrrGGOOOO"/>
        <phase duration="5" state="OGGrOGGGGOrrrOGGrrOOOO"/>
        <phase duration="5" state="OGGrOGGGGOrrrOGGGGOOOO"/>
        <phase duration="5" state="OGGrOGGGGOrrGOrrrrOOOO"/>
        <phase duration="5" state="OGGrOGGGGOrrGOrrGGOOOO"/>
        <phase duration="5" state="OGGrOGGGGOrrGOGGrrOOOO"/>
        <phase duration="5" state="OGGrOGGGGOrrGOGGGGOOOO"/>
        <phase duration="5" state="OGGrOGGGGOGGrOrrrrOOOO"/>
        <phase duration="5" state="OGGrOGGGGOGGrOrrGGOOOO"/>
        <phase duration="5" state="OGGrOGGGGOGGrOGGrrOOOO"/>
        <phase duration="5" state="OGGrOGGGGOGGrOGGGGOOOO"/>
        <phase duration="5" state="OGGrOGGGGOGGGOrrrrOOOO"/>
        <phase duration="5" state="OGGrOGGGGOGGGOrrGGOOOO"/>
        <phase duration="5" state="OGGrOGGGGOGGGOGGrrOOOO"/>
        <phase duration="5" state="OGGrOGGGGOGGGOGGGGOOOO"/>
        <phase duration="5" state="OGGGOrrrrOrrrOrrrrOOOO"/>
        <phase duration="5" state="OGGGOrrrrOrrrOrrGGOOOO"/>
        <phase duration="5" state="OGGGOrrrrOrrrOGGrrOOOO"/>
        <phase duration="5" state="OGGGOrrrrOrrrOGGGGOOOO"/>
        <phase duration="5" state="OGGGOrrrrOrrGOrrrrOOOO"/>
        <phase duration="5" state="OGGGOrrrrOrrGOrrGGOOOO"/>
        <phase duration="5" state="OGGGOrrrrOrrGOGGrrOOOO"/>
        <phase duration="5" state="OGGGOrrrrOrrGOGGGGOOOO"/>
        <phase duration="5" state="OGGGOrrrrOGGrOrrrrOOOO"/>
        <phase duration="5" state="OGGGOrrrrOGGrOrrGGOOOO"/>
        <phase duration="5" state="OGGGOrrrrOGGrOGGrrOOOO"/>
        <phase duration="5" state="OGGGOrrrrOGGrOGGGGOOOO"/>
        <phase duration="5" state="OGGGOrrrrOGGGOrrrrOOOO"/>
        <phase duration="5" state="OGGGOrrrrOGGGOrrGGOOOO"/>
        <phase duration="5" state="OGGGOrrrrOGGGOGGrrOOOO"/>
        <phase duration="5" state="OGGGOrrrrOGGGOGGGGOOOO"/>
        <phase duration="5" state="OGGGOrrrGOrrrOrrrrOOOO"/>
        <phase duration="5" state="OGGGOrrrGOrrrOrrGGOOOO"/>
        <phase duration="5" state="OGGGOrrrGOrrrOGGrrOOOO"/>
        <phase duration="5" state="OGGGOrrrGOrrrOGGGGOOOO"/>
        <phase duration="5" state="OGGGOrrrGOrrGOrrrrOOOO"/>
        <phase duration="5" state="OGGGOrrrGOrrGOrrGGOOOO"/>
        <phase duration="5" state="OGGGOrrrGOrrGOGGrrOOOO"/>
        <phase duration="5" state="OGGGOrrrGOrrGOGGGGOOOO"/>
        <phase duration="5" state="OGGGOrrrGOGGrOrrrrOOOO"/>
        <phase duration="5" state="OGGGOrrrGOGGrOrrGGOOOO"/>
        <phase duration="5" state="OGGGOrrrGOGGrOGGrrOOOO"/>
        <phase duration="5" state="OGGGOrrrGOGGrOGGGGOOOO"/>
        <phase duration="5" state="OGGGOrrrGOGGGOrrrrOOOO"/>
        <phase duration="5" state="OGGGOrrrGOGGGOrrGGOOOO"/>
        <phase duration="5" state="OGGGOrrrGOGGGOGGrrOOOO"/>
        <phase duration="5" state="OGGGOrrrGOGGGOGGGGOOOO"/>
        <phase duration="5" state="OGGGOGGGrOrrrOrrrrOOOO"/>
        <phase duration="5" state="OGGGOGGGrOrrrOrrGGOOOO"/>
        <phase duration="5" state="OGGGOGGGrOrrrOGGrrOOOO"/>
        <phase duration="5" state="OGGGOGGGrOrrrOGGGGOOOO"/>
        <phase duration="5" state="OGGGOGGGrOrrGOrrrrOOOO"/>
        <phase duration="5" state="OGGGOGGGrOrrGOrrGGOOOO"/>
        <phase duration="5" state="OGGGOGGGrOrrGOGGrrOOOO"/>
        <phase duration="5" state="OGGGOGGGrOrrGOGGGGOOOO"/>
        <phase duration="5" state="OGGGOGGGrOGGrOrrrrOOOO"/>
        <phase duration="5" state="OGGGOGGGrOGGrOrrGGOOOO"/>
        <phase duration="5" state="OGGGOGGGrOGGrOGGrrOOOO"/>
        <phase duration="5" state="OGGGOGGGrOGGrOGGGGOOOO"/>
        <phase duration="5" state="OGGGOGGGrOGGGOrrrrOOOO"/>
        <phase duration="5" state="OGGGOGGGrOGGGOrrGGOOOO"/>
        <phase duration="5" state="OGGGOGGGrOGGGOGGrrOOOO"/>
        <phase duration="5" state="OGGGOGGGrOGGGOGGGGOOOO"/>
        <phase duration="5" state="OGGGOGGGGOrrrOrrrrOOOO"/>