<?xml version="1.0" encoding="UTF-8"?>
<nodes xmlns:xsi="http://www.w3.org/2001/XMLSchema-instance" xsi:noNamespaceSchemaLocation="http://sumo.dlr.de/xsd/nodes_file.xsd">
   <node id="a" x="0.0" y="0.0" type="traffic_light"  />
   <node id="a1" x="-48.4" y="-194.1" />
   <node id="a2" x="200.0" y="0.0" />
   <node id="a3" x="0.0" y="200.0" />
   <node id="a4" x="-200.0" y="0.0" />
</nodes>