<?xml version="1.0" encoding="UTF-8"?>

<!-- generated on 11/26/19 20:35:58 by Eclipse SUMO netedit Version 1.3.1
<configuration xmlns:xsi="http://www.w3.org/2001/XMLSchema-instance" xsi:noNamespaceSchemaLocation="http://sumo.dlr.de/xsd/netconvertConfiguration.xsd">

    <input>
        <sumo-net-file value="../cfg5/intersection.net.xml"/>
    </input>

    <output>
        <output-file value="../cfg5/intersection.net.xml"/>
    </output>

    <processing>
        <geometry.max-grade.fix value="false"/>
        <offset.disable-normalization value="true"/>
        <opposites.guess.fix-lengths value="true"/>
        <lefthand value="false"/>
    </processing>

    <junctions>
        <no-internal-links value="false"/>
        <no-turnarounds value="true"/>
        <junctions.corner-detail value="5"/>
        <junctions.limit-turn-speed value="5.5"/>
        <rectangular-lane-cut value="false"/>
    </junctions>

    <pedestrian>
        <walkingareas value="false"/>
    </pedestrian>

    <visualisation>
        <registry-viewport value="true"/>
    </visualisation>

</configuration>
-->

<net version="1.3" junctionCornerDetail="5" limitTurnSpeed="5.50" xmlns:xsi="http://www.w3.org/2001/XMLSchema-instance" xsi:noNamespaceSchemaLocation="http://sumo.dlr.de/xsd/net_file.xsd">

    <location netOffset="200.00,194.10" convBoundary="0.00,0.00,400.00,394.10" origBoundary="-200.00,-194.10,200.00,200.00" projParameter="!"/>

    <edge id=":a_0" function="internal">
        <lane id=":a_0_0" index="0" speed="8.53" length="12.15" width="3.75" shape="187.75,215.60 187.03,211.94 184.86,209.32 181.24,207.75 180.18,207.64"/>
    </edge>
    <edge id=":a_1" function="internal">
        <lane id=":a_1_0" index="0" speed="17.00" length="44.90" width="3.75" shape="191.25,215.60 190.90,202.98 189.77,193.26 187.74,183.65 184.67,171.36"/>
    </edge>
    <edge id=":a_2" function="internal">
        <lane id=":a_2_0" index="0" speed="13.86" length="40.51" width="3.75" shape="194.75,215.60 196.27,202.09 200.81,192.44 208.39,186.65 215.00,185.45"/>
    </edge>
    <edge id=":a_3" function="internal">
        <lane id=":a_3_0" index="0" speed="12.95" length="34.67" width="3.75" shape="198.25,215.60 199.55,203.73 203.44,195.26 209.92,190.17 215.00,189.22"/>
    </edge>
    <edge id=":a_18" function="internal">
        <lane id=":a_18_0" index="0" speed="8.53" length="4.02" width="3.75" shape="180.18,207.64 176.18,207.22"/>
    </edge>
    <edge id=":a_19" function="internal">
        <lane id=":a_19_0" index="0" speed="13.86" length="4.07" width="3.75" shape="215.00,185.45 219.00,184.72"/>
    </edge>
    <edge id=":a_20" function="internal">
        <lane id=":a_20_0" index="0" speed="12.95" length="4.07" width="3.75" shape="215.00,189.22 219.00,188.47"/>
    </edge>
    <edge id=":a_4" function="internal">
        <lane id=":a_4_0" index="0" speed="6.65" length="5.09" width="3.75" shape="219.00,209.85 216.43,210.21 214.59,211.29 214.40,211.60"/>
    </edge>
    <edge id=":a_5" function="internal">
        <lane id=":a_5_0" index="0" speed="17.00" length="42.93" width="3.75" shape="219.00,206.35 176.18,203.47"/>
        <lane id=":a_5_1" index="1" speed="17.00" length="42.93" width="3.75" shape="219.00,202.85 176.18,199.72"/>
    </edge>
    <edge id=":a_7" function="internal">
        <lane id=":a_7_0" index="0" speed="15.54" length="41.78" width="3.75" shape="219.00,199.35 208.27,197.54 199.58,192.13 192.93,183.09 189.69,174.23"/>
    </edge>
    <edge id=":a_8" function="internal">
        <lane id=":a_8_0" index="0" speed="14.71" length="36.94" width="3.75" shape="219.00,195.85 209.62,194.21 201.99,189.27 196.10,181.05 193.31,173.33"/>
    </edge>
    <edge id=":a_21" function="internal">
        <lane id=":a_21_0" index="0" speed="6.65" length="4.28" width="3.75" shape="214.40,211.60 213.49,213.08 213.13,215.60"/>
    </edge>
    <edge id=":a_22" function="internal">
        <lane id=":a_22_0" index="0" speed="15.54" length="4.02" width="3.75" shape="189.69,174.23 188.31,170.45"/>
    </edge>
    <edge id=":a_23" function="internal">
        <lane id=":a_23_0" index="0" speed="14.71" length="4.02" width="3.75" shape="193.31,173.33 191.94,169.54"/>
    </edge>
    <edge id=":a_9" function="internal">
        <lane id=":a_9_0" index="0" speed="10.78" length="17.47" width="3.75" shape="205.65,166.13 207.87,172.62 210.84,177.26 214.55,180.05 215.00,180.14"/>
    </edge>
    <edge id=":a_10" function="internal">
        <lane id=":a_10_0" index="0" speed="17.00" length="48.86" width="3.75" shape="202.25,166.97 205.41,179.94 207.63,191.06 208.94,202.29 209.38,215.60"/>
        <lane id=":a_10_1" index="1" speed="17.00" length="48.86" width="3.75" shape="198.86,167.82 201.96,180.66 204.06,191.49 205.25,202.43 205.63,215.60"/>
    </edge>
    <edge id=":a_12" function="internal">
        <lane id=":a_12_0" index="0" speed="12.79" length="40.80" width="3.75" shape="195.46,168.67 197.38,181.83 195.28,191.59 188.45,197.64 180.18,199.05"/>
    </edge>
    <edge id=":a_24" function="internal">
        <lane id=":a_24_0" index="0" speed="10.78" length="4.09" width="3.75" shape="215.00,180.14 219.00,180.97"/>
    </edge>
    <edge id=":a_25" function="internal">
        <lane id=":a_25_0" index="0" speed="12.79" length="4.06" width="3.75" shape="180.18,199.05 176.18,199.72"/>
    </edge>
    <edge id=":a_13" function="internal">
        <lane id=":a_13_0" index="0" speed="6.19" length="5.16" width="3.75" shape="176.18,178.35 178.87,177.97 180.57,176.83 180.71,176.47"/>
    </edge>
    <edge id=":a_14" function="internal">
        <lane id=":a_14_0" index="0" speed="17.00" length="42.94" width="3.75" shape="176.18,181.85 219.00,184.72"/>
        <lane id=":a_14_1" index="1" speed="17.00" length="42.94" width="3.75" shape="176.18,185.35 219.00,188.47"/>
        <lane id=":a_14_2" index="2" speed="17.00" length="42.94" width="3.75" shape="176.18,188.85 219.00,192.22"/>
    </edge>
    <edge id=":a_17" function="internal">
        <lane id=":a_17_0" index="0" speed="13.07" length="35.44" width="3.75" shape="176.18,192.35 187.42,193.80 195.45,198.16 200.27,205.43 201.24,211.60"/>
    </edge>
    <edge id=":a_26" function="internal">
        <lane id=":a_26_0" index="0" speed="6.19" length="4.32" width="3.75" shape="180.71,176.47 181.29,174.93 181.03,172.27"/>
    </edge>
    <edge id=":a_27" function="internal">
        <lane id=":a_27_0" index="0" speed="13.07" length="4.05" width="3.75" shape="201.24,211.60 201.88,215.60"/>
    </edge>
    <edge id=":a_c0" function="crossing" crossingEdges="a3o a3i">
        <lane id=":a_c0_0" index="0" allow="pedestrian" speed="1.00" length="29.00" width="4.00" shape="215.00,213.60 186.00,213.60"/>
    </edge>
    <edge id=":a_c1" function="crossing" crossingEdges="a2o a2i">
        <lane id=":a_c1_0" index="0" allow="pedestrian" speed="1.00" length="32.50" width="4.00" shape="217.00,179.10 217.00,211.60"/>
    </edge>
    <edge id=":a_c2" function="crossing" crossingEdges="a1o a1i">
        <lane id=":a_c2_0" index="0" allow="pedestrian" speed="1.00" length="29.00" width="4.00" shape="179.69,174.66 207.83,167.64"/>
    </edge>
    <edge id=":a_c3" function="crossing" crossingEdges="a4o a4i">
        <lane id=":a_c3_0" index="0" allow="pedestrian" speed="1.00" length="32.50" width="4.00" shape="178.18,209.10 178.18,176.60"/>
    </edge>
    <edge id=":a_w0" function="walkingarea">
        <lane id=":a_w0_0" index="0" allow="pedestrian" speed="1.00" length="37.40" width="3.75" shape="186.00,215.60 189.50,215.60 189.50,215.60 193.00,215.60 193.00,215.60 196.50,215.60 196.50,215.60 200.00,215.60 200.00,215.60 203.75,215.60 203.75,215.60 207.50,215.60 207.50,215.60 211.25,215.60 211.25,215.60 215.00,215.60 219.00,211.60 219.00,208.10 219.00,208.10 219.00,204.60 219.00,204.60 219.00,201.10 219.00,201.10 219.00,197.60 219.00,197.60 219.00,194.10 219.00,194.10 219.00,190.35 219.00,190.35 219.00,186.60 219.00,186.60 219.00,182.85 219.00,182.85 219.00,179.10 207.35,165.70 203.95,166.55 203.95,166.55 200.56,167.40 200.56,167.40 197.16,168.24 197.16,168.24 193.76,169.09 193.76,169.09 190.12,170.00 190.12,170.00 186.49,170.90 186.49,170.90 182.85,171.81 182.85,171.81 179.21,172.72 176.18,176.60 176.18,180.10 176.18,180.10 176.18,183.60 176.18,183.60 176.18,187.10 176.18,187.10 176.18,190.60 176.18,190.60 176.18,194.10 176.18,194.10 176.18,197.85 176.18,197.85 176.18,201.60 176.18,201.60 176.18,205.35 176.18,205.35 176.18,209.10 185.73,213.61 184.91,211.99 183.54,210.73 181.63,209.82 179.18,209.28"/>
    </edge>
    <edge id=":a_w1" function="walkingarea">
        <lane id=":a_w1_0" index="0" allow="pedestrian" speed="1.00" length="9.02" width="4.00" shape="186.00,211.60 186.00,215.60 176.18,209.10 180.18,209.10"/>
    </edge>
    <edge id=":a_w2" function="walkingarea">
        <lane id=":a_w2_0" index="0" allow="pedestrian" speed="1.00" length="2.83" width="4.00" shape="215.00,211.60 219.00,211.60 215.00,215.60 215.00,211.60"/>
    </edge>
    <edge id=":a_w3" function="walkingarea">
        <lane id=":a_w3_0" index="0" allow="pedestrian" speed="1.00" length="14.67" width="4.00" shape="208.32,169.58 207.35,165.70 219.00,179.10 215.00,179.10"/>
    </edge>
    <edge id=":a_w4" function="walkingarea">
        <lane id=":a_w4_0" index="0" allow="pedestrian" speed="1.00" length="2.46" width="4.00" shape="180.18,176.60 176.18,176.60 179.21,172.72 180.18,176.60"/>
    </edge>
    <edge id=":a1_w0" function="walkingarea">
        <lane id=":a1_w0_0" index="0" allow="pedestrian" speed="1.00" length="25.37" width="3.75" shape="151.60,0.00 155.00,-0.85 155.00,-0.85 158.39,-1.69 158.39,-1.69 161.79,-2.54 161.79,-2.54 165.18,-3.39 137.05,3.63 140.68,2.72 140.68,2.72 144.32,1.81 144.32,1.81 147.96,0.91 147.96,0.91 151.60,-0.00"/>
    </edge>
    <edge id=":a2_w0" function="walkingarea">
        <lane id=":a2_w0_0" index="0" allow="pedestrian" speed="1.00" length="28.88" width="3.75" shape="400.00,194.10 400.00,197.60 400.00,197.60 400.00,201.10 400.00,201.10 400.00,204.60 400.00,204.60 400.00,208.10 400.00,208.10 400.00,211.60 400.00,179.10 400.00,182.85 400.00,182.85 400.00,186.60 400.00,186.60 400.00,190.35 400.00,190.35 400.00,194.10"/>
    </edge>
    <edge id=":a3_w0" function="walkingarea">
        <lane id=":a3_w0_0" index="0" allow="pedestrian" speed="1.00" length="25.38" width="3.75" shape="200.00,394.10 196.50,394.10 196.50,394.10 193.00,394.10 193.00,394.10 189.50,394.10 189.50,394.10 186.00,394.10 215.00,394.10 211.25,394.10 211.25,394.10 207.50,394.10 207.50,394.10 203.75,394.10 203.75,394.10 200.00,394.10"/>
    </edge>
    <edge id=":a4_w0" function="walkingarea">
        <lane id=":a4_w0_0" index="0" allow="pedestrian" speed="1.00" length="28.88" width="3.75" shape="0.00,194.10 0.00,190.60 0.00,190.60 0.00,187.10 0.00,187.10 0.00,183.60 0.00,183.60 0.00,180.10 0.00,180.10 0.00,176.60 0.00,209.10 0.00,205.35 0.00,205.35 0.00,201.60 0.00,201.60 0.00,197.85 0.00,197.85 0.00,194.10"/>
    </edge>

    <edge id="a1i" from="a1" to="a" priority="78">
        <lane id="a1i_0" index="0" speed="15.00" length="174.27" width="3.50" shape="163.49,-2.96 205.65,166.13"/>
        <lane id="a1i_1" index="1" speed="15.00" length="174.27" width="3.50" shape="160.09,-2.12 202.25,166.97"/>
        <lane id="a1i_2" index="2" speed="15.00" length="174.27" width="3.50" shape="156.69,-1.27 198.86,167.82"/>
        <lane id="a1i_3" index="3" speed="15.00" length="174.27" width="3.50" shape="153.30,-0.42 195.46,168.67"/>
    </edge>
    <edge id="a1o" from="a" to="a1" priority="46">
        <lane id="a1o_0" index="0" speed="19.00" length="174.27" width="3.75" shape="181.03,172.27 138.86,3.18"/>
        <lane id="a1o_1" index="1" speed="19.00" length="174.27" width="3.75" shape="184.67,171.36 142.50,2.27"/>
        <lane id="a1o_2" index="2" speed="19.00" length="174.27" width="3.75" shape="188.31,170.45 146.14,1.36"/>
        <lane id="a1o_3" index="3" speed="19.00" length="174.27" width="3.75" shape="191.94,169.54 149.78,0.45"/>
    </edge>
    <edge id="a2i" from="a2" to="a" priority="78">
        <lane id="a2i_0" index="0" speed="15.00" length="181.00" width="3.50" shape="400.00,209.85 219.00,209.85"/>
        <lane id="a2i_1" index="1" speed="15.00" length="181.00" width="3.50" shape="400.00,206.35 219.00,206.35"/>
        <lane id="a2i_2" index="2" speed="15.00" length="181.00" width="3.50" shape="400.00,202.85 219.00,202.85"/>
        <lane id="a2i_3" index="3" speed="15.00" length="181.00" width="3.50" shape="400.00,199.35 219.00,199.35"/>
        <lane id="a2i_4" index="4" speed="15.00" length="181.00" width="3.50" shape="400.00,195.85 219.00,195.85"/>
    </edge>
    <edge id="a2o" from="a" to="a2" priority="46">
        <lane id="a2o_0" index="0" speed="19.00" length="181.00" width="3.75" shape="219.00,180.97 400.00,180.97"/>
        <lane id="a2o_1" index="1" speed="19.00" length="181.00" width="3.75" shape="219.00,184.72 400.00,184.72"/>
        <lane id="a2o_2" index="2" speed="19.00" length="181.00" width="3.75" shape="219.00,188.47 400.00,188.47"/>
        <lane id="a2o_3" index="3" speed="19.00" length="181.00" width="3.75" shape="219.00,192.22 400.00,192.22"/>
    </edge>
    <edge id="a3i" from="a3" to="a" priority="78">
        <lane id="a3i_0" index="0" speed="15.00" length="178.50" width="3.50" shape="187.75,394.10 187.75,215.60"/>
        <lane id="a3i_1" index="1" speed="15.00" length="178.50" width="3.50" shape="191.25,394.10 191.25,215.60"/>
        <lane id="a3i_2" index="2" speed="15.00" length="178.50" width="3.50" shape="194.75,394.10 194.75,215.60"/>
        <lane id="a3i_3" index="3" speed="15.00" length="178.50" width="3.50" shape="198.25,394.10 198.25,215.60"/>
    </edge>
    <edge id="a3o" from="a" to="a3" priority="46">
        <lane id="a3o_0" index="0" speed="19.00" length="178.50" width="3.75" shape="213.13,215.60 213.13,394.10"/>
        <lane id="a3o_1" index="1" speed="19.00" length="178.50" width="3.75" shape="209.38,215.60 209.38,394.10"/>
        <lane id="a3o_2" index="2" speed="19.00" length="178.50" width="3.75" shape="205.63,215.60 205.63,394.10"/>
        <lane id="a3o_3" index="3" speed="19.00" length="178.50" width="3.75" shape="201.88,215.60 201.88,394.10"/>
    </edge>
    <edge id="a4i" from="a4" to="a" priority="78">
        <lane id="a4i_0" index="0" speed="15.00" length="176.18" width="3.50" shape="0.00,178.35 176.18,178.35"/>
        <lane id="a4i_1" index="1" speed="15.00" length="176.18" width="3.50" shape="0.00,181.85 176.18,181.85"/>
        <lane id="a4i_2" index="2" speed="15.00" length="176.18" width="3.50" shape="0.00,185.35 176.18,185.35"/>
        <lane id="a4i_3" index="3" speed="15.00" length="176.18" width="3.50" shape="0.00,188.85 176.18,188.85"/>
        <lane id="a4i_4" index="4" speed="15.00" length="176.18" width="3.50" shape="0.00,192.35 176.18,192.35"/>
    </edge>
    <edge id="a4o" from="a" to="a4" priority="46">
        <lane id="a4o_0" index="0" speed="19.00" length="176.18" width="3.75" shape="176.18,207.22 0.00,207.22"/>
        <lane id="a4o_1" index="1" speed="19.00" length="176.18" width="3.75" shape="176.18,203.47 0.00,203.47"/>
        <lane id="a4o_2" index="2" speed="19.00" length="176.18" width="3.75" shape="176.18,199.72 0.00,199.72"/>
        <lane id="a4o_3" index="3" speed="19.00" length="176.18" width="3.75" shape="176.18,195.97 0.00,195.97"/>
    </edge>

    <tlLogic id="a" type="static" programID="0" offset="0">
        <phase duration="5"  state="OrrrOrrrrOrrrOrrrrOOOO"/>
        <phase duration="5"  state="OrrrOrrrrOrrrOrrrGOOOO"/>
        <phase duration="5"  state="OrrrOrrrrOrrrOGGGrOOOO"/>
        <phase duration="5"  state="OrrrOrrrrOrrrOGGGGOOOO"/>
        <phase duration="5"  state="OrrrOrrrrOrrGOrrrrOOOO"/>
        <phase duration="5"  state="OrrrOrrrrOrrGOrrrGOOOO"/>
        <phase duration="5"  state="OrrrOrrrrOrrGOGGGrOOOO"/>
        <phase duration="5"  state="OrrrOrrrrOrrGOGGGGOOOO"/>
        <phase duration="5"  state="OrrrOrrrrOGGrOrrrrOOOO"/>
        <phase duration="5"  state="OrrrOrrrrOGGrOrrrGOOOO"/>
        <phase duration="5"  state="OrrrOrrrrOGGrOGGGrOOOO"/>
        <phase duration="5"  state="OrrrOrrrrOGGrOGGGGOOOO"/>
        <phase duration="5"  state="OrrrOrrrrOGGGOrrrrOOOO"/>
        <phase duration="5"  state="OrrrOrrrrOGGGOrrrGOOOO"/>
        <phase duration="5"  state="OrrrOrrrrOGGGOGGGrOOOO"/>
        <phase duration="5"  state="OrrrOrrrrOGGGOGGGGOOOO"/>
        <phase duration="5"  state="OrrrOrrGGOrrrOrrrrOOOO"/>
        <phase duration="5"  state="OrrrOrrGGOrrrOrrrGOOOO"/>
        <phase duration="5"  state="OrrrOrrGGOrrrOGGGrOOOO"/>
        <phase duration="5"  state="OrrrOrrGGOrrrOGGGGOOOO"/>
        <phase duration="5"  state="OrrrOrrGGOrrGOrrrrOOOO"/>
        <phase duration="5"  state="OrrrOrrGGOrrGOrrrGOOOO"/>
        <phase duration="5"  state="OrrrOrrGGOrrGOGGGrOOOO"/>
        <phase duration="5"  state="OrrrOrrGGOrrGOGGGGOOOO"/>
        <phase duration="5"  state="OrrrOrrGGOGGrOrrrrOOOO"/>
        <phase duration="5"  state="OrrrOrrGGOGGrOrrrGOOOO"/>
        <phase duration="5"  state="OrrrOrrGGOGGrOGGGrOOOO"/>
        <phase duration="5"  state="OrrrOrrGGOGGrOGGGGOOOO"/>
        <phase duration="5"  state="OrrrOrrGGOGGGOrrrrOOOO"/>
        <phase duration="5"  state="OrrrOrrGGOGGGOrrrGOOOO"/>
        <phase duration="5"  state="OrrrOrrGGOGGGOGGGrOOOO"/>
        <phase duration="5"  state="OrrrOrrGGOGGGOGGGGOOOO"/>
        <phase duration="5"  state="OrrrOGGrrOrrrOrrrrOOOO"/>
        <phase duration="5"  state="OrrrOGGrrOrrrOrrrGOOOO"/>
        <phase duration="5"  state="OrrrOGGrrOrrrOGGGrOOOO"/>
        <phase duration="5"  state="OrrrOGGrrOrrrOGGGGOOOO"/>
        <phase duration="5"  state="OrrrOGGrrOrrGOrrrrOOOO"/>
        <phase duration="5"  state="OrrrOGGrrOrrGOrrrGOOOO"/>
        <phase duration="5"  state="OrrrOGGrrOrrGOGGGrOOOO"/>
        <phase duration="5"  state="OrrrOGGrrOrrGOGGGGOOOO"/>
        <phase duration="5"  state="OrrrOGGrrOGGrOrrrrOOOO"/>
        <phase duration="5"  state="OrrrOGGrrOGGrOrrrGOOOO"/>
        <phase duration="5"  state="OrrrOGGrrOGGrOGGGrOOOO"/>
        <phase duration="5"  state="OrrrOGGrrOGGrOGGGGOOOO"/>
        <phase duration="5"  state="OrrrOGGrrOGGGOrrrrOOOO"/>
        <phase duration="5"  state="OrrrOGGrrOGGGOrrrGOOOO"/>
        <phase duration="5"  state="OrrrOGGrrOGGGOGGGrOOOO"/>
        <phase duration="5"  state="OrrrOGGrrOGGGOGGGGOOOO"/>
        <phase duration="5"  state="OrrrOGGGGOrrrOrrrrOOOO"/>
        <phase duration="5"  state="OrrrOGGGGOrrrOrrrGOOOO"/>
        <phase duration="5"  state="OrrrOGGGGOrrrOGGGrOOOO"/>
        <phase duration="5"  state="OrrrOGGGGOrrrOGGGGOOOO"/>
        <phase duration="5"  state="OrrrOGGGGOrrGOrrrrOOOO"/>
        <phase duration="5"  state="OrrrOGGGGOrrGOrrrGOOOO"/>
        <phase duration="5"  state="OrrrOGGGGOrrGOGGGrOOOO"/>
        <phase duration="5"  state="OrrrOGGGGOrrGOGGGGOOOO"/>
        <phase duration="5"  state="OrrrOGGGGOGGrOrrrrOOOO"/>
        <phase duration="5"  state="OrrrOGGGGOGGrOrrrGOOOO"/>
        <phase duration="5"  state="OrrrOGGGGOGGrOGGGrOOOO"/>
        <phase duration="5"  state="OrrrOGGGGOGGrOGGGGOOOO"/>
        <phase duration="5"  state="OrrrOGGGGOGGGOrrrrOOOO"/>
        <phase duration="5"  state="OrrrOGGGGOGGGOrrrGOOOO"/>
        <phase duration="5"  state="OrrrOGGGGOGGGOGGGrOOOO"/>
        <phase duration="5"  state="OrrrOGGGGOGGGOGGGGOOOO"/>
        <phase duration="5"  state="OrGGOrrrrOrrrOrrrrOOOO"/>
        <phase duration="5"  state="OrGGOrrrrOrrrOrrrGOOOO"/>
        <phase duration="5"  state="OrGGOrrrrOrrrOGGGrOOOO"/>
        <phase duration="5"  state="OrGGOrrrrOrrrOGGGGOOOO"/>
        <phase duration="5"  state="OrGGOrrrrOrrGOrrrrOOOO"/>
        <phase duration="5"  state="OrGGOrrrrOrrGOrrrGOOOO"/>
        <phase duration="5"  state="OrGGOrrrrOrrGOGGGrOOOO"/>
        <phase duration="5"  state="OrGGOrrrrOrrGOGGGGOOOO"/>
        <phase duration="5"  state="OrGGOrrrrOGGrOrrrrOOOO"/>
        <phase duration="5"  state="OrGGOrrrrOGGrOrrrGOOOO"/>
        <phase duration="5"  state="OrGGOrrrrOGGrOGGGrOOOO"/>
        <phase duration="5"  state="OrGGOrrrrOGGrOGGGGOOOO"/>
        <phase duration="5"  state="OrGGOrrrrOGGGOrrrrOOOO"/>
        <phase duration="5"  state="OrGGOrrrrOGGGOrrrGOOOO"/>
        <phase duration="5"  state="OrGGOrrrrOGGGOGGGrOOOO"/>
        <phase duration="5"  state="OrGGOrrrrOGGGOGGGGOOOO"/>
        <phase duration="5"  state="OrGGOrrGGOrrrOrrrrOOOO"/>
        <phase duration="5"  state="OrGGOrrGGOrrrOrrrGOOOO"/>
        <phase duration="5"  state="OrGGOrrGGOrrrOGGGrOOOO"/>
        <phase duration="5"  state="OrGGOrrGGOrrrOGGGGOOOO"/>
        <phase duration="5"  state="OrGGOrrGGOrrGOrrrrOOOO"/>
        <phase duration="5"  state="OrGGOrrGGOrrGOrrrGOOOO"/>
        <phase duration="5"  state="OrGGOrrGGOrrGOGGGrOOOO"/>
        <phase duration="5"  state="OrGGOrrGGOrrGOGGGGOOOO"/>
        <phase duration="5"  state="OrGGOrrGGOGGrOrrrrOOOO"/>
        <phase duration="5"  state="OrGGOrrGGOGGrOrrrGOOOO"/>
        <phase duration="5"  state="OrGGOrrGGOGGrOGGGrOOOO"/>
        <phase duration="5"  state="OrGGOrrGGOGGrOGGGGOOOO"/>
        <phase duration="5"  state="OrGGOrrGGOGGGOrrrrOOOO"/>
        <phase duration="5"  state="OrGGOrrGGOGGGOrrrGOOOO"/>
        <phase duration="5"  state="OrGGOrrGGOGGGOGGGrOOOO"/>
        <phase duration="5"  state="OrGGOrrGGOGGGOGGGGOOOO"/>
        <phase duration="5"  state="OrGGOGGrrOrrrOrrrrOOOO"/>
        <phase duration="5"  state="OrGGOGGrrOrrrOrrrGOOOO"/>
        <phase duration="5"  state="OrGGOGGrrOrrrOGGGrOOOO"/>
        <phase duration="5"  state="OrGGOGGrrOrrrOGGGGOOOO"/>
        <phase duration="5"  state="OrGGOGGrrOrrGOrrrrOOOO"/>
        <phase duration="5"  state="OrGGOGGrrOrrGOrrrGOOOO"/>
        <phase duration="5"  state="OrGGOGGrrOrrGOGGGrOOOO"/>
        <phase duration="5"  state="OrGGOGGrrOrrGOGGGGOOOO"/>
        <phase duration="5"  state="OrGGOGGrrOGGrOrrrrOOOO"/>
        <phase duration="5"  state="OrGGOGGrrOGGrOrrrGOOOO"/>
        <phase duration="5"  state="OrGGOGGrrOGGrOGGGrOOOO"/>
        <phase duration="5"  state="OrGGOGGrrOGGrOGGGGOOOO"/>
        <phase duration="5"  state="OrGGOGGrrOGGGOrrrrOOOO"/>
        <phase duration="5"  state="OrGGOGGrrOGGGOrrrGOOOO"/>
        <phase duration="5"  state="OrGGOGGrrOGGGOGGGrOOOO"/>
        <phase duration="5"  state="OrGGOGGrrOGGGOGGGGOOOO"/>
        <phase duration="5"  state="OrGGOGGGGOrrrOrrrrOOOO"/>
        <phase duration="5"  state="OrGGOGGGGOrrrOrrrGOOOO"/>
        <phase duration="5"  state="OrGGOGGGGOrrrOGGGrOOOO"/>
        <phase duration="5"  state="OrGGOGGGGOrrrOGGGGOOOO"/>
        <phase duration="5"  state="OrGGOGGGGOrrGOrrrrOOOO"/>
        <phase duration="5"  state="OrGGOGGGGOrrGOrrrGOOOO"/>
        <phase duration="5"  state="OrGGOGGGGOrrGOGGGrOOOO"/>
        <phase duration="5"  state="OrGGOGGGGOrrGOGGGGOOOO"/>
        <phase duration="5"  state="OrGGOGGGGOGGrOrrrrOOOO"/>
        <phase duration="5"  state="OrGGOGGGGOGGrOrrrGOOOO"/>
        <phase duration="5"  state="OrGGOGGGGOGGrOGGGrOOOO"/>
        <phase duration="5"  state="OrGGOGGGGOGGrOGGGGOOOO"/>
        <phase duration="5"  state="OrGGOGGGGOGGGOrrrrOOOO"/>
        <phase duration="5"  state="OrGGOGGGGOGGGOrrrGOOOO"/>
        <phase duration="5"  state="OrGGOGGGGOGGGOGGGrOOOO"/>
        <phase duration="5"  state="OrGGOGGGGOGGGOGGGGOOOO"/>
        <phase duration="5"  state="OGrrOrrrrOrrrOrrrrOOOO"/>
        <phase duration="5"  state="OGrrOrrrrOrrrOrrrGOOOO"/>
        <phase duration="5"  state="OGrrOrrrrOrrrOGGGrOOOO"/>
        <phase duration="5"  state="OGrrOrrrrOrrrOGGGGOOOO"/>
        <phase duration="5"  state="OGrrOrrrrOrrGOrrrrOOOO"/>
        <phase duration="5"  state="OGrrOrrrrOrrGOrrrGOOOO"/>
        <phase duration="5"  state="OGrrOrrrrOrrGOGGGrOOOO"/>
        <phase duration="5"  state="OGrrOrrrrOrrGOGGGGOOOO"/>
        <phase duration="5"  state="OGrrOrrrrOGGrOrrrrOOOO"/>
        <phase duration="5"  state="OGrrOrrrrOGGrOrrrGOOOO"/>
        <phase duration="5"  state="OGrrOrrrrOGGrOGGGrOOOO"/>
        <phase duration="5"  state="OGrrOrrrrOGGrOGGGGOOOO"/>
        <phase duration="5"  state="OGrrOrrrrOGGGOrrrrOOOO"/>
        <phase duration="5"  state="OGrrOrrrrOGGGOrrrGOOOO"/>
        <phase duration="5"  state="OGrrOrrrrOGGGOGGGrOOOO"/>
        <phase duration="5"  state="OGrrOrrrrOGGGOGGGGOOOO"/>
        <phase duration="5"  state="OGrrOrrGGOrrrOrrrrOOOO"/>
        <phase duration="5"  state="OGrrOrrGGOrrrOrrrGOOOO"/>
        <phase duration="5"  state="OGrrOrrGGOrrrOGGGrOOOO"/>
        <phase duration="5"  state="OGrrOrrGGOrrrOGGGGOOOO"/>
        <phase duration="5"  state="OGrrOrrGGOrrGOrrrrOOOO"/>
        <phase duration="5"  state="OGrrOrrGGOrrGOrrrGOOOO"/>
        <phase duration="5"  state="OGrrOrrGGOrrGOGGGrOOOO"/>
        <phase duration="5"  state="OGrrOrrGGOrrGOGGGGOOOO"/>
        <phase duration="5"  state="OGrrOrrGGOGGrOrrrrOOOO"/>
        <phase duration="5"  state="OGrrOrrGGOGGrOrrrGOOOO"/>
        <phase duration="5"  state="OGrrOrrGGOGGrOGGGrOOOO"/>
        <phase duration="5"  state="OGrrOrrGGOGGrOGGGGOOOO"/>
        <phase duration="5"  state="OGrrOrrGGOGGGOrrrrOOOO"/>
        <phase duration="5"  state="OGrrOrrGGOGGGOrrrGOOOO"/>
        <phase duration="5"  state="OGrrOrrGGOGGGOGGGrOOOO"/>
        <phase duration="5"  state="OGrrOrrGGOGGGOGGGGOOOO"/>
        <phase duration="5"  state="OGrrOGGrrOrrrOrrrrOOOO"/>
        <phase duration="5"  state="OGrrOGGrrOrrrOrrrGOOOO"/>
        <phase duration="5"  state="OGrrOGGrrOrrrOGGGrOOOO"/>
        <phase duration="5"  state="OGrrOGGrrOrrrOGGGGOOOO"/>
        <phase duration="5"  state="OGrrOGGrrOrrGOrrrrOOOO"/>
        <phase duration="5"  state="OGrrOGGrrOrrGOrrrGOOOO"/>
        <phase duration="5"  state="OGrrOGGrrOrrGOGGGrOOOO"/>
        <phase duration="5"  state="OGrrOGGrrOrrGOGGGGOOOO"/>
        <phase duration="5"  state="OGrrOGGrrOGGrOrrrrOOOO"/>
        <phase duration="5"  state="OGrrOGGrrOGGrOrrrGOOOO"/>
        <phase duration="5"  state="OGrrOGGrrOGGrOGGGrOOOO"/>
        <phase duration="5"  state="OGrrOGGrrOGGrOGGGGOOOO"/>
        <phase duration="5"  state="OGrrOGGrrOGGGOrrrrOOOO"/>
        <phase duration="5"  state="OGrrOGGrrOGGGOrrrGOOOO"/>
        <phase duration="5"  state="OGrrOGGrrOGGGOGGGrOOOO"/>
        <phase duration="5"  state="OGrrOGGrrOGGGOGGGGOOOO"/>
        <phase duration="5"  state="OGrrOGGGGOrrrOrrrrOOOO"/>
        <phase duration="5"  state="OGrrOGGGGOrrrOrrrGOOOO"/>
        <phase duration="5"  state="OGrrOGGGGOrrrOGGGrOOOO"/>
        <phase duration="5"  state="OGrrOGGGGOrrrOGGGGOOOO"/>
        <phase duration="5"  state="OGrrOGGGGOrrGOrrrrOOOO"/>
        <phase duration="5"  state="OGrrOGGGGOrrGOrrrGOOOO"/>
        <phase duration="5"  state="OGrrOGGGGOrrGOGGGrOOOO"/>
        <phase duration="5"  state="OGrrOGGGGOrrGOGGGGOOOO"/>
        <phase duration="5"  state="OGrrOGGGGOGGrOrrrrOOOO"/>
        <phase duration="5"  state="OGrrOGGGGOGGrOrrrGOOOO"/>
        <phase duration="5"  state="OGrrOGGGGOGGrOGGGrOOOO"/>
        <phase duration="5"  state="OGrrOGGGGOGGrOGGGGOOOO"/>
        <phase duration="5"  state="OGrrOGGGGOGGGOrrrrOOOO"/>
        <phase duration="5"  state="OGrrOGGGGOGGGOrrrGOOOO"/>
        <phase duration="5"  state="OGrrOGGGGOGGGOGGGrOOOO"/>
        <phase duration="5"  state="OGrrOGGGGOGGGOGGGGOOOO"/>
        <phase duration="5"  state="OGGGOrrrrOrrrOrrrrOOOO"/>
        <phase duration="5"  state="OGGGOrrrrOrrrOrrrGOOOO"/>
        <phase duration="5"  state="OGGGOrrrrOrrrOGGGrOOOO"/>
        <phase duration="5"  state="OGGGOrrrrOrrrOGGGGOOOO"/>
        <phase duration="5"  state="OGGGOrrrrOrrGOrrrrOOOO"/>
        <phase duration="5"  state="OGGGOrrrrOrrGOrrrGOOOO"/>
        <phase duration="5"  state="OGGGOrrrrOrrGOGGGrOOOO"/>
        <phase duration="5"  state="OGGGOrrrrOrrGOGGGGOOOO"/>
        <phase duration="5"  state="OGGGOrrrrOGGrOrrrrOOOO"/>
        <phase duration="5"  state="OGGGOrrrrOGGrOrrrGOOOO"/>
        <phase duration="5"  state="OGGGOrrrrOGGrOGGGrOOOO"/>
        <phase duration="5"  state="OGGGOrrrrOGGrOGGGGOOOO"/>
        <phase duration="5"  state="OGGGOrrrrOGGGOrrrrOOOO"/>
        <phase duration="5"  state="OGGGOrrrrOGGGOrrrGOOOO"/>
        <phase duration="5"  state="OGGGOrrrrOGGGOGGGrOOOO"/>
        <phase duration="5"  state="OGGGOrrrrOGGGOGGGGOOOO"/>
        <phase duration="5"  state="OGGGOrrGGOrrrOrrrrOOOO"/>
        <phase duration="5"  state="OGGGOrrGGOrrrOrrrGOOOO"/>
        <phase duration="5"  state="OGGGOrrGGOrrrOGGGrOOOO"/>
        <phase duration="5"  state="OGGGOrrGGOrrrOGGGGOOOO"/>
        <phase duration="5"  state="OGGGOrrGGOrrGOrrrrOOOO"/>
        <phase duration="5"  state="OGGGOrrGGOrrGOrrrGOOOO"/>
        <phase duration="5"  state="OGGGOrrGGOrrGOGGGrOOOO"/>
        <phase duration="5"  state="OGGGOrrGGOrrGOGGGGOOOO"/>
        <phase duration="5"  state="OGGGOrrGGOGGrOrrrrOOOO"/>
        <phase duration="5"  state="OGGGOrrGGOGGrOrrrGOOOO"/>
        <phase duration="5"  state="OGGGOrrGGOGGrOGGGrOOOO"/>
        <phase duration="5"  state="OGGGOrrGGOGGrOGGGGOOOO"/>
        <phase duration="5"  state="OGGGOrrGGOGGGOrrrrOOOO"/>
        <phase duration="5"  state="OGGGOrrGGOGGGOrrrGOOOO"/>
        <phase duration="5"  state="OGGGOrrGGOGGGOGGGrOOOO"/>
        <phase duration="5"  state="OGGGOrrGGOGGGOGGGGOOOO"/>
        <phase duration="5"  state="OGGGOGGrrOrrrOrrrrOOOO"/>
        <phase duration="5"  state="OGGGOGGrrOrrrOrrrGOOOO"/>
        <phase duration="5"  state="OGGGOGGrrOrrrOGGGrOOOO"/>
        <phase duration="5"  state="OGGGOGGrrOrrrOGGGGOOOO"/>
        <phase duration="5"  state="OGGGOGGrrOrrGOrrrrOOOO"/>
        <phase duration="5"  state="OGGGOGGrrOrrGOrrrGOOOO"/>
        <phase duration="5"  state="OGGGOGGrrOrrGOGGGrOOOO"/>
        <phase duration="5"  state="OGGGOGGrrOrrGOGGGGOOOO"/>
        <phase duration="5"  state="OGGGOGGrrOGGrOrrrrOOOO"/>
        <phase duration="5"  state="OGGGOGGrrOGGrOrrrGOOOO"/>